output/1_QUEB_1/Cargas_MT_DO05_1_QUEB_1.dss
New "Load.MT_65157_M1" bus1="651571.1.2.3.4" phases=3 conn=delta model=2 kv=23.1 kw = 0.9180273999957602 pf=0.92 status=variable vmaxpu=1.5 vminpu=0.93 daily="MT1_DO" 
New "Load.MT_65157_M2" bus1="651571.1.2.3.4" phases=3 conn=delta model=3 kv=23.1 kw = 0.9180273999957602 pf=0.92 status=variable vmaxpu=1.5 vminpu=0.93 daily="MT1_DO"
 
New "Load.MT_79782_M1" bus1="797821.1.2.3.4" phases=3 conn=delta model=2 kv=23.1 kw = 4.565933153533861 pf=0.92 status=variable vmaxpu=1.5 vminpu=0.93 daily="MT4_DO" 
New "Load.MT_79782_M2" bus1="797821.1.2.3.4" phases=3 conn=delta model=3 kv=23.1 kw = 4.565933153533861 pf=0.92 status=variable vmaxpu=1.5 vminpu=0.93 daily="MT4_DO"
 
